warn: The se.py script is deprecated. It will be removed in future releases of  gem5.
warn: Base 10 memory/cache size 512MB will be cast to base 2 size 512MiB.
Global frequency set at 1000000000000 ticks per second
warn: No dot file generated. Please install pydot to generate the dot file and pdf.
src/mem/dram_interface.cc:690: warn: DRAM device capacity (8192 Mbytes) does not match the address range assigned (512 Mbytes)
fatal: system.cpu.branchPred.conditionalBranchPred without default or user set value
gem5 Simulator System.  https://www.gem5.org
gem5 is copyrighted software; use the --copyright option for details.

gem5 version 25.1.0.1
gem5 compiled May  7 2026 10:26:26
gem5 started May 30 2026 00:07:21
gem5 executing on Frenie, pid 191
command line: build/X86/gem5.opt configs/deprecated/example/se.py --cmd tests/test-progs/hello/bin/x86/linux/hello --cpu-type=X86MinorCPU --mem-size=512MB --caches --bp-type=GshareBP

